*SRC=DRDP006W;DI_DRDP006W_PNP;BJTs PNP; Si;  60.0V  0.600A  200MHz   Diodes Inc. Transistor 
.MODEL DI_DRDP006W_PNP  PNP (IS=60.7f NF=1.00 BF=312 VAF=139 
+ IKF=0.219 ISE=26.0p NE=2.00 BR=4.00 NR=1.00 
+ VAR=20.0 IKR=0.540 RE=85.8m RB=0.343 RC=34.3m 
+ XTB=1.5 CJE=50.4p VJE=1.10 MJE=0.500 CJC=23.1p VJC=0.300 
+ MJC=0.300 TF=758p TR=123n EG=1.12 )

*SRC=DRDP006W;DI_DRDP006W_DIODE;Diodes;Si;  75.0V  0.250A  4.00ns   Diodes Inc. Switching Diode
.MODEL DI_DRDP006W_DIODE D  ( IS=300n RS=0.422 BV=75.0 IBV=2.50u
+ CJO=1.99p  M=0.333 N=2.77 TT=5.76n )